omf/scratch/anonymization/randomNames/main.2018-04-18-10-23-21.glm
clock {
	timezone PST+8PDT;
	starttime '2000-01-01 00:00:00';
	stoptime '2000-01-02 00:00:00';
};

#set minimum_timestep=60;
#set profiler=1;
#set relax_naming_rules=1;
module generators;
module tape;
module climate;
module residential {
	implicit_enduses NONE;
};

module powerflow {
	solver_method NR;
	NR_iteration_limit 50;
};

object node {
	phases ABCN;
	name 1034;
	bustype SWING;
	nominal_voltage 7200.0;
};

object overhead_line {
	phases ACBN;
	from 1034;
	name 1573;
	to 1494;
	length 20.6237;
	configuration 1679;
};

object overhead_line {
	phases ACBN;
	from 1494;
	name 459;
	to 1324;
	length 13.0755;
	configuration 1679;
};

object overhead_line {
	phases ACBN;
	from 1324;
	name 1539;
	to 216;
	length 14.8233;
	configuration 1679;
};

object overhead_line {
	phases ACBN;
	from 1324;
	name 526;
	to 843;
	length 10;
	configuration 1679;
};

object overhead_line {
	phases ACBN;
	from 1324;
	name 1743;
	to 504;
	length 10;
	configuration 1679;
};

object overhead_line {
	phases ACBN;
	from 1324;
	name 730;
	to 347;
	length 19.0913;
	configuration 1679;
};

object overhead_line {
	phases ACBN;
	from 347;
	name 886;
	to 1432;
	length 24.3563;
	configuration 1679;
};

object fuse {
	phases ACBN;
	from 1432;
	name 513;
	current_limit 9999.0 A;
	to 857;
};

object overhead_line {
	phases ACBN;
	from 857;
	name 659;
	to 1203;
	length 82.2659;
	configuration 1679;
};

object overhead_line {
	phases ACBN;
	from 1203;
	name 1270;
	to 840;
	length 87.5465;
	configuration 1679;
};

object overhead_line {
	phases ACBN;
	from 840;
	name 1621;
	to 231;
	length 281.156;
	configuration 1679;
};

object overhead_line {
	phases ACBN;
	from 231;
	name 1279;
	to 100;
	length 465.786;
	configuration 1679;
};

object overhead_line {
	phases ACBN;
	from 100;
	name 132;
	to 474;
	length 212.612;
	configuration 1679;
};

object overhead_line {
	phases ACBN;
	from 474;
	name 787;
	to 166;
	length 302.735;
	configuration 1679;
};

object overhead_line {
	phases ACBN;
	from 166;
	name 728;
	to 1276;
	length 178.526;
	configuration 1679;
};

object overhead_line {
	phases ACBN;
	from 1276;
	name 737;
	to 1768;
	length 144.103;
	configuration 1679;
};

object transformer {
	phases BS;
	from 1768;
	name 1101;
	to 1716;
	configuration 115;
};

object triplex_node {
	phases BS;
	power_12 100;
	name 1441;
	parent 1716;
	nominal_voltage 120;
};

object overhead_line {
	phases ACBN;
	from 1768;
	name 579;
	to 1308;
	length 266.66;
	configuration 1679;
};

object overhead_line {
	phases ACBN;
	from 1308;
	name 1669;
	to 975;
	length 153.517;
	configuration 1679;
};

object overhead_line {
	phases ACBN;
	from 975;
	name 352;
	to 604;
	length 357.003;
	configuration 1679;
};

object overhead_line {
	phases AN;
	from 604;
	name 1092;
	to 902;
	length 27.7071;
	configuration 1641;
};

object fuse {
	phases AN;
	from 902;
	name 477;
	current_limit 9999.0 A;
	to 136;
};

object overhead_line {
	phases AN;
	from 136;
	name 1380;
	to 145;
	length 103.665;
	configuration 1641;
};

object transformer {
	phases AS;
	from 145;
	name 1726;
	to 1260;
	configuration 115;
};

object triplex_node {
	phases AS;
	power_12 100;
	name 523;
	parent 1260;
	nominal_voltage 120;
};

object triplex_node {
	phases AS;
	power_12 100;
	name 1138;
	parent 1260;
	nominal_voltage 120;
};

object overhead_line {
	phases ACBN;
	from 604;
	name 1723;
	to 162;
	length 287.2;
	configuration 1679;
};

object transformer {
	phases BS;
	from 162;
	name 398;
	to 772;
	configuration 115;
};

object triplex_node {
	phases BS;
	power_12 100;
	name 1343;
	parent 772;
	nominal_voltage 120;
};

object overhead_line {
	phases ACBN;
	from 162;
	name 235;
	to 765;
	length 211.226;
	configuration 1679;
};

object transformer {
	phases CS;
	from 765;
	name 1545;
	to 1523;
	configuration 115;
};

object triplex_node {
	phases CS;
	power_12 100;
	name 1202;
	parent 1523;
	nominal_voltage 120;
};

object overhead_line {
	phases ACBN;
	from 765;
	name 305;
	to 919;
	length 194.654;
	configuration 1679;
};

object transformer {
	phases BS;
	from 919;
	name 922;
	to 1594;
	configuration 115;
};

object triplex_node {
	phases BS;
	power_12 100;
	name 70;
	parent 1594;
	nominal_voltage 120;
};

object overhead_line {
	phases ACBN;
	from 919;
	name 1164;
	to 217;
	length 222.044;
	configuration 1679;
};

object overhead_line {
	phases ACBN;
	from 217;
	name 1033;
	to 631;
	length 273.49;
	configuration 1679;
};

object transformer {
	phases AS;
	from 631;
	name 1375;
	to 1730;
	configuration 115;
};

object triplex_node {
	phases AS;
	power_12 100;
	name 978;
	parent 1730;
	nominal_voltage 120;
};

object overhead_line {
	phases CN;
	from 631;
	name 361;
	to 558;
	length 26.5061;
	configuration 427;
};

object fuse {
	phases CN;
	from 558;
	name 205;
	current_limit 9999.0 A;
	to 932;
};

object overhead_line {
	phases CN;
	from 932;
	name 925;
	to 395;
	length 80.8867;
	configuration 427;
};

object transformer {
	phases CS;
	from 395;
	name 226;
	to 1756;
	configuration 115;
};

object triplex_node {
	phases CS;
	power_12 1519.04;
	name 1328;
	parent 1756;
	nominal_voltage 120;
};

object overhead_line {
	phases CN;
	from 631;
	name 1758;
	to 170;
	length 28.1181;
	configuration 427;
};

object fuse {
	phases CN;
	from 170;
	name 849;
	current_limit 9999.0 A;
	to 789;
};

object overhead_line {
	phases CN;
	from 789;
	name 1004;
	to 1116;
	length 241.85;
	configuration 427;
};

object overhead_line {
	phases CN;
	from 1116;
	name 1608;
	to 774;
	length 320.096;
	configuration 427;
};

object overhead_line {
	phases CN;
	from 774;
	name 1740;
	to 1345;
	length 319.967;
	configuration 427;
};

object transformer {
	phases CS;
	from 1345;
	name 1749;
	to 247;
	configuration 115;
};

object triplex_node {
	phases CS;
	power_12 1655.3;
	name 173;
	parent 247;
	nominal_voltage 120;
};

object overhead_line {
	phases CN;
	from 1345;
	name 791;
	to 144;
	length 203.088;
	configuration 427;
};

object overhead_line {
	phases CN;
	from 144;
	name 929;
	to 256;
	length 158.947;
	configuration 427;
};

object transformer {
	phases CS;
	from 256;
	name 581;
	to 1417;
	configuration 115;
};

object triplex_node {
	phases CS;
	power_12 10133.7;
	name 1335;
	parent 1417;
	nominal_voltage 120;
};

object overhead_line {
	phases AN;
	from 631;
	name 1316;
	to 799;
	length 24.9997;
	configuration 1641;
};

object fuse {
	phases AN;
	from 799;
	name 172;
	current_limit 9999.0 A;
	to 682;
};

object overhead_line {
	phases AN;
	from 682;
	name 1456;
	to 1018;
	length 260.872;
	configuration 1641;
};

object transformer {
	phases AS;
	from 1018;
	name 436;
	to 882;
	configuration 115;
};

object triplex_node {
	phases AS;
	power_12 100;
	name 771;
	parent 882;
	nominal_voltage 120;
};

object overhead_line {
	phases AN;
	from 1018;
	name 1535;
	to 259;
	length 174.815;
	configuration 1641;
};

object transformer {
	phases AS;
	from 259;
	name 927;
	to 1402;
	configuration 115;
};

object triplex_node {
	phases AS;
	power_12 100;
	name 1603;
	parent 1402;
	nominal_voltage 120;
};

object triplex_node {
	phases AS;
	power_12 100;
	name 1509;
	parent 1402;
	nominal_voltage 120;
};

object overhead_line {
	phases AN;
	from 1018;
	name 747;
	to 1748;
	length 467.84;
	configuration 1641;
};

object transformer {
	phases AS;
	from 1748;
	name 1370;
	to 1617;
	configuration 115;
};

object triplex_node {
	phases AS;
	power_12 100;
	name 602;
	parent 1617;
	nominal_voltage 120;
};

object triplex_node {
	phases AS;
	power_12 100;
	name 252;
	parent 1617;
	nominal_voltage 120;
};

object overhead_line {
	phases AN;
	from 1748;
	name 588;
	to 1008;
	length 372.94;
	configuration 1641;
};

object transformer {
	phases AS;
	from 1008;
	name 184;
	to 375;
	configuration 115;
};

object triplex_node {
	phases AS;
	power_12 100;
	name 1493;
	parent 375;
	nominal_voltage 120;
};

object overhead_line {
	phases AN;
	from 1008;
	name 1154;
	to 185;
	length 288.845;
	configuration 1641;
};

object transformer {
	phases AS;
	from 185;
	name 591;
	to 1418;
	configuration 115;
};

object triplex_node {
	phases AS;
	power_12 100;
	name 1199;
	parent 1418;
	nominal_voltage 120;
};

object overhead_line {
	phases AN;
	from 1748;
	name 295;
	to 135;
	length 235.1;
	configuration 1641;
};

object overhead_line {
	phases AN;
	from 135;
	name 1392;
	to 1329;
	length 316.703;
	configuration 1641;
};

object transformer {
	phases AS;
	from 1329;
	name 370;
	to 124;
	configuration 115;
};

object triplex_node {
	phases AS;
	power_12 100;
	name 1161;
	parent 124;
	nominal_voltage 120;
};

object triplex_node {
	phases AS;
	power_12 100;
	name 1029;
	parent 124;
	nominal_voltage 120;
};

object overhead_line {
	phases AN;
	from 1329;
	name 423;
	to 1770;
	length 201.012;
	configuration 1641;
};

object transformer {
	phases AS;
	from 1770;
	name 276;
	to 1480;
	configuration 115;
};

object triplex_node {
	phases AS;
	power_12 100;
	name 656;
	parent 1480;
	nominal_voltage 120;
};

object overhead_line {
	phases AN;
	from 135;
	name 1732;
	to 1753;
	length 383.447;
	configuration 1641;
};

object transformer {
	phases AS;
	from 1753;
	name 1111;
	to 1664;
	configuration 115;
};

object triplex_node {
	phases AS;
	power_12 100;
	name 1001;
	parent 1664;
	nominal_voltage 120;
};

object overhead_line {
	phases AN;
	from 1753;
	name 1077;
	to 524;
	length 321.462;
	configuration 1641;
};

object transformer {
	phases AS;
	from 524;
	name 1217;
	to 1143;
	configuration 115;
};

object triplex_node {
	phases AS;
	power_12 100;
	name 116;
	parent 1143;
	nominal_voltage 120;
};

object triplex_node {
	phases AS;
	power_12 100;
	name 476;
	parent 1143;
	nominal_voltage 120;
};

object overhead_line {
	phases AN;
	from 524;
	name 101;
	to 300;
	length 211.036;
	configuration 1641;
};

object transformer {
	phases AS;
	from 300;
	name 236;
	to 1645;
	configuration 115;
};

object triplex_node {
	phases AS;
	power_12 100;
	name 841;
	parent 1645;
	nominal_voltage 120;
};

object overhead_line {
	phases AN;
	from 300;
	name 1144;
	to 1699;
	length 202.261;
	configuration 1641;
};

object transformer {
	phases AS;
	from 1699;
	name 804;
	to 1069;
	configuration 115;
};

object triplex_node {
	phases AS;
	power_12 100;
	name 989;
	parent 1069;
	nominal_voltage 120;
};

object triplex_node {
	phases AS;
	power_12 100;
	name 1593;
	parent 1069;
	nominal_voltage 120;
};

object overhead_line {
	phases AN;
	from 1699;
	name 749;
	to 1139;
	length 217.697;
	configuration 1641;
};

object transformer {
	phases AS;
	from 1139;
	name 829;
	to 910;
	configuration 115;
};

object triplex_node {
	phases AS;
	power_12 100;
	name 306;
	parent 910;
	nominal_voltage 120;
};

object triplex_node {
	phases AS;
	power_12 100;
	name 617;
	parent 910;
	nominal_voltage 120;
};

object overhead_line {
	phases AN;
	from 1699;
	name 229;
	to 284;
	length 198.705;
	configuration 1641;
};

object transformer {
	phases AS;
	from 284;
	name 1571;
	to 901;
	configuration 115;
};

object triplex_node {
	phases AS;
	power_12 100;
	name 707;
	parent 901;
	nominal_voltage 120;
};

object overhead_line {
	phases AN;
	from 300;
	name 1318;
	to 892;
	length 202.235;
	configuration 1641;
};

object transformer {
	phases AS;
	from 892;
	name 1463;
	to 246;
	configuration 115;
};

object triplex_node {
	phases AS;
	power_12 100;
	name 648;
	parent 246;
	nominal_voltage 120;
};

object overhead_line {
	phases AN;
	from 135;
	name 1405;
	to 139;
	length 141.214;
	configuration 1641;
};

object transformer {
	phases AS;
	from 139;
	name 785;
	to 482;
	configuration 115;
};

object triplex_node {
	phases AS;
	power_12 100;
	name 1737;
	parent 482;
	nominal_voltage 120;
};

object overhead_line {
	phases ACBN;
	from 631;
	name 365;
	to 130;
	length 335.444;
	configuration 1679;
};

object transformer {
	phases BS;
	from 130;
	name 227;
	to 1228;
	configuration 115;
};

object triplex_node {
	phases BS;
	power_12 100;
	name 1334;
	parent 1228;
	nominal_voltage 120;
};

object overhead_line {
	phases CN;
	from 130;
	name 1761;
	to 1110;
	length 26.6007;
	configuration 427;
};

object fuse {
	phases CN;
	from 1110;
	name 858;
	current_limit 9999.0 A;
	to 1010;
};

object overhead_line {
	phases CN;
	from 1010;
	name 456;
	to 1200;
	length 243.066;
	configuration 427;
};

object transformer {
	phases CS;
	from 1200;
	name 383;
	to 489;
	configuration 115;
};

object triplex_node {
	phases CS;
	power_12 4534.42;
	name 242;
	parent 489;
	nominal_voltage 120;
};

object overhead_line {
	phases CN;
	from 1200;
	name 856;
	to 1561;
	length 305.297;
	configuration 427;
};

object transformer {
	phases CS;
	from 1561;
	name 1273;
	to 1222;
	configuration 115;
};

object triplex_node {
	phases CS;
	power_12 3757.23;
	name 931;
	parent 1222;
	nominal_voltage 120;
};

object overhead_line {
	phases ACBN;
	from 130;
	name 1414;
	to 1337;
	length 386.822;
	configuration 1679;
};

object overhead_line {
	phases ACBN;
	from 1337;
	name 327;
	to 257;
	length 137.975;
	configuration 1679;
};

object transformer {
	phases BS;
	from 257;
	name 296;
	to 381;
	configuration 115;
};

object triplex_node {
	phases BS;
	power_12 100;
	name 392;
	parent 381;
	nominal_voltage 120;
};

object overhead_line {
	phases AN;
	from 257;
	name 1484;
	to 483;
	length 25.0001;
	configuration 1641;
};

object fuse {
	phases AN;
	from 483;
	name 875;
	current_limit 9999.0 A;
	to 600;
};

object overhead_line {
	phases AN;
	from 600;
	name 744;
	to 1216;
	length 118.283;
	configuration 1641;
};

object transformer {
	phases AS;
	from 1216;
	name 1079;
	to 1347;
	configuration 115;
};

object triplex_node {
	phases AS;
	power_12 100;
	name 959;
	parent 1347;
	nominal_voltage 120;
};

object overhead_line {
	phases AN;
	from 1216;
	name 338;
	to 1012;
	length 218.301;
	configuration 1641;
};

object overhead_line {
	phases AN;
	from 1012;
	name 1551;
	to 1177;
	length 286.217;
	configuration 1641;
};

object transformer {
	phases AS;
	from 1177;
	name 180;
	to 1518;
	configuration 115;
};

object triplex_node {
	phases AS;
	power_12 100;
	name 1762;
	parent 1518;
	nominal_voltage 120;
};

object overhead_line {
	phases AN;
	from 257;
	name 1145;
	to 178;
	length 428.982;
	configuration 275;
};

object transformer {
	phases AS;
	from 178;
	name 1106;
	to 1747;
	configuration 115;
};

object triplex_node {
	phases AS;
	power_12 100;
	name 1713;
	parent 1747;
	nominal_voltage 120;
};

object triplex_node {
	phases AS;
	power_12 100;
	name 861;
	parent 1747;
	nominal_voltage 120;
};

object overhead_line {
	phases ACBN;
	from 257;
	name 516;
	to 450;
	length 155.789;
	configuration 1679;
};

object underground_line {
	phases ACBN;
	from 450;
	name 1638;
	to 783;
	length 24.9999;
	configuration 866;
};

object fuse {
	phases ACB;
	from 783;
	name 534;
	current_limit 9999.0 A;
	to 1187;
};

object underground_line {
	phases ACB;
	from 1187;
	name 129;
	to 577;
	length 201.626;
	configuration 866;
};

object transformer {
	phases AS;
	from 577;
	name 1497;
	to 1395;
	configuration 115;
};

object triplex_node {
	phases AS;
	power_12 3072.58;
	name 842;
	parent 1395;
	nominal_voltage 120;
};

object overhead_line {
	phases ACBN;
	from 450;
	name 1486;
	to 1739;
	length 172.639;
	configuration 1679;
};

object transformer {
	phases BS;
	from 1739;
	name 425;
	to 143;
	configuration 115;
};

object triplex_node {
	phases BS;
	power_12 100;
	name 760;
	parent 143;
	nominal_voltage 120;
};

object triplex_node {
	phases BS;
	power_12 100;
	name 1162;
	parent 143;
	nominal_voltage 120;
};

object triplex_node {
	phases BS;
	power_12 100;
	name 552;
	parent 143;
	nominal_voltage 120;
};

object overhead_line {
	phases ACBN;
	from 1739;
	name 1447;
	to 761;
	length 561.815;
	configuration 1679;
};

object overhead_line {
	phases AN;
	from 761;
	name 629;
	to 1632;
	length 22.8798;
	configuration 275;
};

object fuse {
	phases AN;
	from 1632;
	name 1725;
	current_limit 9999.0 A;
	to 1741;
};

object overhead_line {
	phases AN;
	from 1741;
	name 640;
	to 1541;
	length 64.7094;
	configuration 275;
};

object line_configuration {
	name 275;
	spacing 1678;
	conductor_N 808;
	conductor_A 808;
	conductor_C 1094;
	conductor_B 1094;
};

object overhead_line {
	phases AN;
	from 1541;
	name 514;
	to 1515;
	length 186.866;
	configuration 275;
};

object transformer {
	phases AS;
	from 1515;
	name 693;
	to 1109;
	configuration 115;
};

object triplex_node {
	phases AS;
	power_12 100;
	name 1605;
	parent 1109;
	nominal_voltage 120;
};

object triplex_node {
	phases AS;
	power_12 100;
	name 457;
	parent 1109;
	nominal_voltage 120;
};

object overhead_line {
	phases ACBN;
	from 761;
	name 1067;
	to 766;
	length 169.689;
	configuration 1679;
};

object overhead_line {
	phases ACBN;
	from 766;
	name 73;
	to 1660;
	length 293.041;
	configuration 1679;
};

object overhead_line {
	phases ACBN;
	from 1660;
	name 596;
	to 563;
	length 421.542;
	configuration 1679;
};

object overhead_line {
	phases CN;
	from 563;
	name 1431;
	to 738;
	length 25;
	configuration 427;
};

object fuse {
	phases CN;
	from 738;
	name 342;
	current_limit 9999.0 A;
	to 120;
};

object overhead_line {
	phases CN;
	from 120;
	name 470;
	to 1705;
	length 235.932;
	configuration 427;
};

object transformer {
	phases CS;
	from 1705;
	name 435;
	to 336;
	configuration 115;
};

object triplex_node {
	phases CS;
	power_12 2697.44;
	name 1697;
	parent 336;
	nominal_voltage 120;
};

object overhead_line {
	phases CN;
	from 1705;
	name 1080;
	to 880;
	length 78.2066;
	configuration 427;
};

object transformer {
	phases CS;
	from 880;
	name 234;
	to 1296;
	configuration 115;
};

object triplex_node {
	phases CS;
	power_12 2172.58;
	name 1320;
	parent 1296;
	nominal_voltage 120;
};

object triplex_node {
	phases CS;
	power_12 787.278;
	name 973;
	parent 1296;
	nominal_voltage 120;
};

object overhead_line {
	phases CN;
	from 880;
	name 358;
	to 720;
	length 187.008;
	configuration 427;
};

object overhead_line {
	phases CN;
	from 720;
	name 202;
	to 1065;
	length 268.521;
	configuration 427;
};

object overhead_line {
	phases CN;
	from 1065;
	name 117;
	to 940;
	length 144.519;
	configuration 427;
};

object overhead_line {
	phases CN;
	from 940;
	name 148;
	to 323;
	length 159.822;
	configuration 427;
};

object overhead_line {
	phases CN;
	from 323;
	name 1242;
	to 1412;
	length 192.016;
	configuration 427;
};

object overhead_line {
	phases CN;
	from 1412;
	name 1021;
	to 1072;
	length 242.98;
	configuration 427;
};

object transformer {
	phases CS;
	from 1072;
	name 1633;
	to 1204;
	configuration 115;
};

object triplex_node {
	phases CS;
	power_12 2914.44;
	name 1250;
	parent 1204;
	nominal_voltage 120;
};

object overhead_line {
	phases CN;
	from 323;
	name 884;
	to 105;
	length 336;
	configuration 427;
};

object transformer {
	phases CS;
	from 105;
	name 498;
	to 444;
	configuration 115;
};

object triplex_node {
	phases CS;
	power_12 2540.99;
	name 1114;
	parent 444;
	nominal_voltage 120;
};

object overhead_line {
	phases CN;
	from 720;
	name 269;
	to 89;
	length 115.812;
	configuration 427;
};

object transformer {
	phases CS;
	from 89;
	name 1616;
	to 672;
	configuration 115;
};

object triplex_node {
	phases CS;
	power_12 4567.22;
	name 1236;
	parent 672;
	nominal_voltage 120;
};

object overhead_line {
	phases ACBN;
	from 563;
	name 138;
	to 1284;
	length 546.446;
	configuration 1679;
};

object transformer {
	phases BS;
	from 1284;
	name 569;
	to 1175;
	configuration 115;
};

object triplex_node {
	phases BS;
	power_12 100;
	name 917;
	parent 1175;
	nominal_voltage 120;
};

object overhead_line {
	phases ACBN;
	from 1284;
	name 1319;
	to 1293;
	length 131.068;
	configuration 1679;
};

object overhead_line {
	phases ACBN;
	from 1293;
	name 687;
	to 88;
	length 222.516;
	configuration 1679;
};

object switch {
	status CLOSED;
	phases ACBN;
	from 88;
	name 1538;
	to 79;
};

object switch {
	status CLOSED;
	phases ACBN;
	from 79;
	name 1427;
	to 837;
};

object overhead_line {
	phases ACBN;
	from 837;
	name 559;
	to 225;
	length 25.0002;
	configuration 1679;
};

object overhead_line {
	phases ACBN;
	from 225;
	name 1655;
	to 912;
	length 226.378;
	configuration 1679;
};

object transformer {
	phases AS;
	from 912;
	name 357;
	to 1255;
	configuration 115;
};

object triplex_node {
	phases AS;
	power_12 100;
	name 698;
	parent 1255;
	nominal_voltage 120;
};

object overhead_line {
	phases ACBN;
	from 912;
	name 754;
	to 1657;
	length 222.764;
	configuration 1679;
};

object overhead_line {
	phases ACBN;
	from 1657;
	name 1093;
	to 1047;
	length 489.892;
	configuration 1679;
};

object overhead_line {
	phases ACBN;
	from 1047;
	name 1495;
	to 1589;
	length 558.193;
	configuration 1679;
};

object overhead_line {
	phases ACBN;
	from 1589;
	name 887;
	to 237;
	length 76.3128;
	configuration 1679;
};

object overhead_line {
	phases ACBN;
	from 237;
	name 1473;
	to 1555;
	length 329.719;
	configuration 1679;
};

object transformer {
	phases BS;
	from 1555;
	name 69;
	to 1032;
	configuration 115;
};

object triplex_node {
	phases BS;
	power_12 100;
	name 970;
	parent 1032;
	nominal_voltage 120;
};

object triplex_node {
	phases BS;
	power_12 100;
	name 351;
	parent 1032;
	nominal_voltage 120;
};

object triplex_node {
	phases BS;
	power_12 100;
	name 980;
	parent 1032;
	nominal_voltage 120;
};

object overhead_line {
	phases ACBN;
	from 1555;
	name 844;
	to 628;
	length 311.671;
	configuration 1679;
};

object overhead_line {
	phases AN;
	from 628;
	name 1426;
	to 280;
	length 29.6986;
	configuration 1641;
};

object fuse {
	phases AN;
	from 280;
	name 337;
	current_limit 9999.0 A;
	to 1317;
};

object overhead_line {
	phases AN;
	from 1317;
	name 1623;
	to 213;
	length 99.3975;
	configuration 1641;
};

object transformer {
	phases AS;
	from 213;
	name 847;
	to 1165;
	configuration 115;
};

object triplex_node {
	phases AS;
	power_12 100;
	name 253;
	parent 1165;
	nominal_voltage 120;
};

object overhead_line {
	phases AN;
	from 213;
	name 868;
	to 1176;
	length 278.816;
	configuration 1641;
};

object overhead_line {
	phases AN;
	from 1176;
	name 469;
	to 575;
	length 354.071;
	configuration 1641;
};

object overhead_line {
	phases AN;
	from 575;
	name 122;
	to 1191;
	length 348.862;
	configuration 1641;
};

object overhead_line {
	phases AN;
	from 1191;
	name 1185;
	to 1174;
	length 238.633;
	configuration 1641;
};

object overhead_line {
	phases AN;
	from 1174;
	name 110;
	to 75;
	length 333.034;
	configuration 1641;
};

object transformer {
	phases AS;
	from 75;
	name 321;
	to 956;
	configuration 115;
};

object triplex_node {
	phases AS;
	power_12 100;
	name 1416;
	parent 956;
	nominal_voltage 120;
};

object overhead_line {
	phases AN;
	from 75;
	name 1285;
	to 1060;
	length 285.607;
	configuration 1641;
};

object overhead_line {
	phases AN;
	from 1060;
	name 1300;
	to 188;
	length 108.49;
	configuration 1641;
};

object transformer {
	phases AS;
	from 188;
	name 689;
	to 826;
	configuration 115;
};

object triplex_node {
	phases AS;
	power_12 100;
	name 544;
	parent 826;
	nominal_voltage 120;
};

object triplex_node {
	phases AS;
	power_12 100;
	name 458;
	parent 826;
	nominal_voltage 120;
};

object overhead_line {
	phases A;
	from 1060;
	name 481;
	to 438;
	length 159.789;
	configuration 1641;
};

object underground_line {
	phases A;
	from 438;
	name 1574;
	to 84;
	length 215.958;
	configuration 866;
};

object overhead_line {
	phases AN;
	from 1174;
	name 664;
	to 991;
	length 222.075;
	configuration 1641;
};

object transformer {
	phases AS;
	from 991;
	name 788;
	to 1595;
	configuration 115;
};

object triplex_node {
	phases AS;
	power_12 100;
	name 1398;
	parent 1595;
	nominal_voltage 120;
};

object overhead_line {
	phases AN;
	from 575;
	name 1534;
	to 495;
	length 252;
	configuration 1641;
};

object transformer {
	phases AS;
	from 495;
	name 1628;
	to 830;
	configuration 115;
};

object triplex_node {
	phases AS;
	power_12 100;
	name 1763;
	parent 830;
	nominal_voltage 120;
};

object overhead_line {
	phases ACBN;
	from 628;
	name 679;
	to 1659;
	length 351.049;
	configuration 1679;
};

object transformer {
	phases AS;
	from 1659;
	name 797;
	to 1063;
	configuration 115;
};

object triplex_node {
	phases AS;
	power_12 100;
	name 462;
	parent 1063;
	nominal_voltage 120;
};

object overhead_line {
	phases ACBN;
	from 1659;
	name 638;
	to 1466;
	length 78.1503;
	configuration 1679;
};

object overhead_line {
	phases AN;
	from 628;
	name 1738;
	to 99;
	length 29.7713;
	configuration 1641;
};

object fuse {
	phases AN;
	from 99;
	name 1119;
	current_limit 9999.0 A;
	to 1041;
};

object overhead_line {
	phases AN;
	from 1041;
	name 1528;
	to 1611;
	length 486.611;
	configuration 1641;
};

object line_configuration {
	name 1641;
	spacing 1678;
	conductor_N 430;
	conductor_A 430;
	conductor_C 1094;
	conductor_B 1094;
};

object overhead_line {
	phases AN;
	from 1611;
	name 158;
	to 713;
	length 346.911;
	configuration 1641;
};

object transformer {
	phases AS;
	from 713;
	name 567;
	to 1057;
	configuration 115;
};

object triplex_node {
	phases AS;
	power_12 100;
	name 1663;
	parent 1057;
	nominal_voltage 120;
};

object triplex_node {
	phases AS;
	power_12 100;
	name 818;
	parent 1057;
	nominal_voltage 120;
};

object overhead_line {
	phases AN;
	from 713;
	name 1194;
	to 734;
	length 375.825;
	configuration 275;
};

object transformer {
	phases AS;
	from 734;
	name 1313;
	to 403;
	configuration 115;
};

object triplex_node {
	phases AS;
	power_12 100;
	name 207;
	parent 403;
	nominal_voltage 120;
};

object overhead_line {
	phases AN;
	from 734;
	name 1081;
	to 519;
	length 341.47;
	configuration 275;
};

object transformer {
	phases AS;
	from 519;
	name 1173;
	to 1135;
	configuration 115;
};

object triplex_node {
	phases AS;
	power_12 100;
	name 341;
	parent 1135;
	nominal_voltage 120;
};

object overhead_line {
	phases AN;
	from 519;
	name 951;
	to 1458;
	length 343.023;
	configuration 275;
};

object overhead_line {
	phases AN;
	from 1458;
	name 568;
	to 1122;
	length 226.764;
	configuration 1641;
};

object transformer {
	phases AS;
	from 1122;
	name 190;
	to 1694;
	configuration 115;
};

object triplex_node {
	phases AS;
	power_12 100;
	name 1038;
	parent 1694;
	nominal_voltage 120;
};

object overhead_line {
	phases AN;
	from 713;
	name 1651;
	to 599;
	length 157.693;
	configuration 1641;
};

object transformer {
	phases AS;
	from 599;
	name 109;
	to 493;
	configuration 115;
};

object triplex_node {
	phases AS;
	power_12 100;
	name 98;
	parent 493;
	nominal_voltage 120;
};

object overhead_line {
	phases AN;
	from 713;
	name 1075;
	to 609;
	length 196.101;
	configuration 275;
};

object overhead_line {
	phases AN;
	from 609;
	name 1415;
	to 1765;
	length 243.492;
	configuration 275;
};

object transformer {
	phases AS;
	from 1765;
	name 1289;
	to 1148;
	configuration 115;
};

object triplex_node {
	phases AS;
	power_12 100;
	name 268;
	parent 1148;
	nominal_voltage 120;
};

object triplex_node {
	phases AS;
	power_12 100;
	name 750;
	parent 1148;
	nominal_voltage 120;
};

object overhead_line {
	phases AN;
	from 1765;
	name 515;
	to 1023;
	length 198.508;
	configuration 275;
};

object overhead_line {
	phases AN;
	from 1023;
	name 401;
	to 1367;
	length 293.785;
	configuration 1641;
};

object overhead_line {
	phases AN;
	from 1367;
	name 1475;
	to 1227;
	length 215.575;
	configuration 1641;
};

object transformer {
	phases AS;
	from 1227;
	name 786;
	to 614;
	configuration 115;
};

object triplex_node {
	phases AS;
	power_12 100;
	name 677;
	parent 614;
	nominal_voltage 120;
};

object triplex_node {
	phases AS;
	power_12 100;
	name 582;
	parent 614;
	nominal_voltage 120;
};

object overhead_line {
	phases AN;
	from 1227;
	name 1193;
	to 1752;
	length 216.201;
	configuration 1641;
};

object transformer {
	phases AS;
	from 1752;
	name 831;
	to 393;
	configuration 115;
};

object triplex_node {
	phases AS;
	power_12 100;
	name 1262;
	parent 393;
	nominal_voltage 120;
};

object overhead_line {
	phases AN;
	from 1023;
	name 1750;
	to 245;
	length 177.49;
	configuration 275;
};

object transformer {
	phases AS;
	from 245;
	name 666;
	to 1350;
	configuration 115;
};

object triplex_node {
	phases AS;
	power_12 100;
	name 634;
	parent 1350;
	nominal_voltage 120;
};

object overhead_line {
	phases AN;
	from 1765;
	name 714;
	to 1552;
	length 116.619;
	configuration 1641;
};

object overhead_line {
	phases AN;
	from 1552;
	name 410;
	to 466;
	length 245.206;
	configuration 1641;
};

object overhead_line {
	phases AN;
	from 466;
	name 1169;
	to 814;
	length 361.047;
	configuration 1641;
};

object overhead_line {
	phases AN;
	from 814;
	name 303;
	to 968;
	length 204.81;
	configuration 1641;
};

object transformer {
	phases AS;
	from 968;
	name 1233;
	to 140;
	configuration 115;
};

object triplex_node {
	phases AS;
	power_12 100;
	name 282;
	parent 140;
	nominal_voltage 120;
};

object overhead_line {
	phases AN;
	from 1611;
	name 632;
	to 1264;
	length 150.83;
	configuration 1641;
};

object transformer {
	phases AS;
	from 1264;
	name 1035;
	to 595;
	configuration 115;
};

object triplex_node {
	phases AS;
	power_12 100;
	name 428;
	parent 595;
	nominal_voltage 120;
};

object overhead_line {
	phases ACBN;
	from 237;
	name 1045;
	to 221;
	length 361.26;
	configuration 1679;
};

object overhead_line {
	phases AN;
	from 221;
	name 1408;
	to 1321;
	length 25.0002;
	configuration 1641;
};

object fuse {
	phases AN;
	from 1321;
	name 1502;
	current_limit 9999.0 A;
	to 212;
};

object overhead_line {
	phases AN;
	from 212;
	name 414;
	to 848;
	length 81.4961;
	configuration 1641;
};

object overhead_line {
	phases AN;
	from 848;
	name 1373;
	to 179;
	length 177.052;
	configuration 1641;
};

object transformer {
	phases AS;
	from 179;
	name 893;
	to 1413;
	configuration 115;
};

object triplex_node {
	phases AS;
	power_12 100;
	name 1386;
	parent 1413;
	nominal_voltage 120;
};

object overhead_line {
	phases ACBN;
	from 221;
	name 540;
	to 487;
	length 303.262;
	configuration 1679;
};

object overhead_line {
	phases ACBN;
	from 487;
	name 636;
	to 667;
	length 240.007;
	configuration 1679;
};

object transformer {
	phases BS;
	from 667;
	name 1599;
	to 1168;
	configuration 115;
};

object triplex_node {
	phases BS;
	power_12 100;
	name 657;
	parent 1168;
	nominal_voltage 120;
};

object triplex_node {
	phases BS;
	power_12 100;
	name 1019;
	parent 1168;
	nominal_voltage 120;
};

object overhead_line {
	phases ACBN;
	from 667;
	name 1130;
	to 1089;
	length 258.716;
	configuration 1679;
};

object transformer {
	phases CS;
	from 1089;
	name 1241;
	to 475;
	configuration 115;
};

object triplex_node {
	phases CS;
	power_12 3504.9;
	name 141;
	parent 475;
	nominal_voltage 120;
};

object overhead_line {
	phases ACBN;
	from 1089;
	name 497;
	to 999;
	length 311.169;
	configuration 1679;
};

object overhead_line {
	phases ACBN;
	from 999;
	name 151;
	to 465;
	length 393.013;
	configuration 1679;
};

object overhead_line {
	phases AN;
	from 465;
	name 261;
	to 889;
	length 219.619;
	configuration 1641;
};

object transformer {
	phases AS;
	from 889;
	name 903;
	to 542;
	configuration 115;
};

object triplex_node {
	phases AS;
	power_12 100;
	name 1253;
	parent 542;
	nominal_voltage 120;
};

object overhead_line {
	phases CN;
	from 465;
	name 918;
	to 660;
	length 25;
	configuration 427;
};

object fuse {
	phases CN;
	from 660;
	name 769;
	current_limit 9999.0 A;
	to 1294;
};

object overhead_line {
	phases CN;
	from 1294;
	name 157;
	to 1400;
	length 467.549;
	configuration 427;
};

object transformer {
	phases CS;
	from 1400;
	name 1757;
	to 1514;
	configuration 115;
};

object triplex_node {
	phases CS;
	power_12 3111.26;
	name 1646;
	parent 1514;
	nominal_voltage 120;
};

object triplex_node {
	phases CS;
	power_12 507.189;
	name 1527;
	parent 1514;
	nominal_voltage 120;
};

object overhead_line {
	phases CN;
	from 1400;
	name 896;
	to 1630;
	length 76.1979;
	configuration 427;
};

object transformer {
	phases CS;
	from 1630;
	name 779;
	to 530;
	configuration 115;
};

object triplex_node {
	phases CS;
	power_12 100;
	name 1128;
	parent 530;
	nominal_voltage 120;
};

object overhead_line {
	phases CN;
	from 1630;
	name 1438;
	to 673;
	length 158.17;
	configuration 427;
};

object transformer {
	phases CS;
	from 673;
	name 1671;
	to 325;
	configuration 115;
};

object triplex_node {
	phases CS;
	power_12 3053.22;
	name 1685;
	parent 325;
	nominal_voltage 120;
};

object overhead_line {
	phases ACBN;
	from 465;
	name 590;
	to 939;
	length 370.349;
	configuration 1679;
};

object overhead_line {
	phases ACBN;
	from 939;
	name 199;
	to 1282;
	length 436.493;
	configuration 1679;
};

object overhead_line {
	phases ACBN;
	from 1282;
	name 1548;
	to 1171;
	length 231.048;
	configuration 1679;
};

object overhead_line {
	phases ACBN;
	from 1171;
	name 1167;
	to 1512;
	length 16.7208;
	configuration 807;
};

object fuse {
	phases ACBN;
	from 1512;
	name 74;
	current_limit 9999.0 A;
	to 1157;
};

object overhead_line {
	phases ACBN;
	from 1157;
	name 947;
	to 546;
	length 13.0467;
	configuration 807;
};

object line_configuration {
	name 807;
	spacing 1678;
	conductor_N 808;
	conductor_A 808;
	conductor_C 808;
	conductor_B 808;
};

object overhead_line_conductor {
	resistance 2.44;
	name 808;
	geometric_mean_radius 0.00479;
};

object overhead_line {
	phases ACBN;
	from 546;
	name 571;
	to 441;
	length 198.672;
	configuration 807;
};

object overhead_line {
	phases ACBN;
	from 441;
	name 187;
	to 324;
	length 333.666;
	configuration 807;
};

object overhead_line {
	phases ACBN;
	from 324;
	name 805;
	to 432;
	length 425.544;
	configuration 807;
};

object overhead_line {
	phases ACBN;
	from 432;
	name 1235;
	to 1517;
	length 380.42;
	configuration 807;
};

object overhead_line {
	phases ACBN;
	from 1517;
	name 1580;
	to 1215;
	length 366.98;
	configuration 807;
};

object overhead_line {
	phases ACBN;
	from 1215;
	name 270;
	to 114;
	length 397.887;
	configuration 807;
};

object overhead_line {
	phases ACBN;
	from 114;
	name 1348;
	to 1442;
	length 514.255;
	configuration 807;
};

object overhead_line {
	phases ACBN;
	from 1442;
	name 993;
	to 1078;
	length 338.245;
	configuration 807;
};

object overhead_line {
	phases ACBN;
	from 1078;
	name 397;
	to 702;
	length 479.758;
	configuration 807;
};

object overhead_line {
	phases ACBN;
	from 702;
	name 1226;
	to 735;
	length 428.894;
	configuration 807;
};

object overhead_line {
	phases ACBN;
	from 735;
	name 619;
	to 472;
	length 501.183;
	configuration 807;
};

object overhead_line {
	phases ACB;
	from 472;
	name 1020;
	to 125;
	length 201.729;
	configuration 1102;
};

object underground_line {
	phases ACB;
	from 125;
	name 1365;
	to 1434;
	length 28.5185;
	configuration 866;
};

object fuse {
	phases ACB;
	from 1434;
	name 1393;
	current_limit 9999.0 A;
	to 344;
};

object underground_line {
	phases ACB;
	from 344;
	name 1028;
	to 603;
	length 110.07;
	configuration 866;
};

object underground_line {
	phases ACB;
	from 603;
	name 1624;
	to 1356;
	length 158.171;
	configuration 866;
};

object transformer {
	phases AS;
	from 1356;
	name 529;
	to 1658;
	configuration 115;
};

object triplex_node {
	phases AS;
	power_12 100;
	name 670;
	parent 1658;
	nominal_voltage 120;
};

object triplex_node {
	phases AS;
	power_12 100;
	name 294;
	parent 1658;
	nominal_voltage 120;
};

object underground_line {
	phases AN;
	from 1356;
	name 434;
	to 1141;
	length 212.725;
	configuration 866;
};

object transformer {
	phases AS;
	from 1141;
	name 1042;
	to 1309;
	configuration 115;
};

object triplex_node {
	phases AS;
	power_12 100;
	name 1591;
	parent 1309;
	nominal_voltage 120;
};

object underground_line {
	phases AN;
	from 1141;
	name 1249;
	to 778;
	length 205.18;
	configuration 866;
};

object transformer {
	phases AS;
	from 778;
	name 1155;
	to 1025;
	configuration 115;
};

object triplex_node {
	phases AS;
	power_12 100;
	name 537;
	parent 1025;
	nominal_voltage 120;
};

object triplex_node {
	phases AS;
	power_12 100;
	name 1654;
	parent 1025;
	nominal_voltage 120;
};

object triplex_node {
	phases AS;
	power_12 100;
	name 316;
	parent 1025;
	nominal_voltage 120;
};

object underground_line {
	phases AN;
	from 778;
	name 1667;
	to 420;
	length 214.739;
	configuration 866;
};

object transformer {
	phases AS;
	from 420;
	name 1052;
	to 782;
	configuration 115;
};

object triplex_node {
	phases AS;
	power_12 100;
	name 928;
	parent 782;
	nominal_voltage 120;
};

object underground_line {
	phases AN;
	from 420;
	name 584;
	to 1152;
	length 305.264;
	configuration 866;
};

object transformer {
	phases AS;
	from 1152;
	name 916;
	to 1082;
	configuration 115;
};

object triplex_node {
	phases AS;
	power_12 100;
	name 302;
	parent 1082;
	nominal_voltage 120;
};

object underground_line {
	phases ACBN;
	from 1356;
	name 740;
	to 473;
	length 217.404;
	configuration 866;
};

object transformer {
	phases BS;
	from 473;
	name 339;
	to 346;
	configuration 115;
};

object triplex_node {
	phases BS;
	power_12 100;
	name 1707;
	parent 346;
	nominal_voltage 120;
};

object underground_line {
	phases ACB;
	from 473;
	name 1103;
	to 686;
	length 265.389;
	configuration 866;
};

object underground_line {
	phases B;
	from 686;
	name 877;
	to 545;
	length 83.1156;
	configuration 866;
};

object underground_line {
	phases ACB;
	from 603;
	name 376;
	to 1643;
	length 652.912;
	configuration 866;
};

object fuse {
	phases ACB;
	from 1643;
	name 996;
	current_limit 9999.0 A;
	to 1068;
};

object underground_line {
	phases ACB;
	from 1068;
	name 1596;
	to 1411;
	length 29.5374;
	configuration 866;
};

object underground_line {
	phases ACB;
	from 1411;
	name 1504;
	to 1281;
	length 29.9672;
	configuration 866;
};

object switch {
	status CLOSED;
	phases ACBN;
	from 1281;
	name 644;
	to 675;
};

object switch {
	status CLOSED;
	phases ACB;
	from 675;
	name 1733;
	to 1760;
};

object underground_line {
	phases ACB;
	from 1411;
	name 971;
	to 1420;
	length 28.999;
	configuration 866;
};

object fuse {
	phases ACB;
	from 1420;
	name 1371;
	current_limit 9999.0 A;
	to 1542;
};

object underground_line {
	phases ACB;
	from 1542;
	name 757;
	to 460;
	length 486.139;
	configuration 866;
};

object underground_line {
	phases ACB;
	from 460;
	name 1379;
	to 781;
	length 91.9686;
	configuration 866;
};

object underground_line {
	phases ACBN;
	from 781;
	name 1742;
	to 447;
	length 140;
	configuration 866;
};

object transformer {
	phases BS;
	from 447;
	name 1120;
	to 1016;
	configuration 115;
};

object triplex_node {
	phases BS;
	power_12 100;
	name 777;
	parent 1016;
	nominal_voltage 120;
};

object triplex_node {
	phases BS;
	power_12 100;
	name 921;
	parent 1016;
	nominal_voltage 120;
};

object triplex_node {
	phases BS;
	power_12 100;
	name 1526;
	parent 1016;
	nominal_voltage 120;
};

object underground_line {
	phases ACBN;
	from 447;
	name 218;
	to 1629;
	length 280.001;
	configuration 866;
};

object transformer {
	phases CS;
	from 1629;
	name 1598;
	to 1520;
	configuration 115;
};

object triplex_node {
	phases CS;
	power_12 2710.05;
	name 382;
	parent 1520;
	nominal_voltage 120;
};

object triplex_node {
	phases CS;
	power_12 1763.8;
	name 1002;
	parent 1520;
	nominal_voltage 120;
};

object triplex_node {
	phases CS;
	power_12 3545.27;
	name 974;
	parent 1520;
	nominal_voltage 120;
};

object underground_line {
	phases CN;
	from 1629;
	name 1049;
	to 1642;
	length 189.809;
	configuration 866;
};

object underground_line {
	phases CN;
	from 1642;
	name 1540;
	to 1521;
	length 236.79;
	configuration 866;
};

object transformer {
	phases CS;
	from 1521;
	name 1409;
	to 755;
	configuration 115;
};

object triplex_node {
	phases CS;
	power_12 100;
	name 1751;
	parent 755;
	nominal_voltage 120;
};

object underground_line {
	phases C;
	from 1521;
	name 1620;
	to 1007;
	length 75.43;
	configuration 866;
};

object underground_line {
	phases C;
	from 1007;
	name 1011;
	to 1575;
	length 137.48;
	configuration 866;
};

object transformer {
	phases CS;
	from 1575;
	name 507;
	to 1027;
	configuration 115;
};

object triplex_node {
	phases CS;
	power_12 100;
	name 845;
	parent 1027;
	nominal_voltage 120;
};

object triplex_node {
	phases CS;
	power_12 1942.96;
	name 606;
	parent 1027;
	nominal_voltage 120;
};

object triplex_node {
	phases CS;
	power_12 3005.28;
	name 103;
	parent 1027;
	nominal_voltage 120;
};

object triplex_node {
	phases CS;
	power_12 2369.4;
	name 1490;
	parent 1027;
	nominal_voltage 120;
};

object underground_line {
	phases CN;
	from 1575;
	name 873;
	to 1132;
	length 133.57;
	configuration 866;
};

object transformer {
	phases CS;
	from 1132;
	name 273;
	to 1536;
	configuration 115;
};

object triplex_node {
	phases CS;
	power_12 1768.85;
	name 652;
	parent 1536;
	nominal_voltage 120;
};

object triplex_node {
	phases CS;
	power_12 1836.98;
	name 292;
	parent 1536;
	nominal_voltage 120;
};

object underground_line {
	phases ACBN;
	from 1629;
	name 1390;
	to 104;
	length 258.114;
	configuration 866;
};

object transformer {
	phases AS;
	from 104;
	name 1257;
	to 1745;
	configuration 115;
};

object triplex_node {
	phases AS;
	power_12 100;
	name 1625;
	parent 1745;
	nominal_voltage 120;
};

object triplex_node {
	phases AS;
	power_12 100;
	name 1247;
	parent 1745;
	nominal_voltage 120;
};

object line_configuration {
	name 866;
	spacing 867;
	conductor_N 869;
	conductor_A 869;
	conductor_C 869;
	conductor_B 869;
};

object line_spacing {
	distance_AN 0.000000;
	name 867;
	distance_CN 0.000000;
	distance_BC 0.500000;
	distance_AB 0.500000;
	distance_BN 0.000000;
	distance_AC 1.000000;
};

object underground_line_conductor {
	conductor_gmr 0.008830;
	conductor_resistance 1.540000;
	shield_resistance 0.000000;
	neutral_gmr 0.002080;
	outer_diameter 0.980000;
	neutral_strands 6.000000;
	neutral_resistance 14.872000;
	neutral_diameter 0.064000;
	conductor_diameter 0.292000;
	shield_gmr 0.000000;
	name 869;
};

object underground_line {
	phases ACBN;
	from 104;
	name 643;
	to 386;
	length 126.182;
	configuration 866;
};

object underground_line {
	phases ACBN;
	from 386;
	name 1731;
	to 492;
	length 230.013;
	configuration 866;
};

object transformer {
	phases BS;
	from 492;
	name 1366;
	to 1104;
	configuration 115;
};

object triplex_node {
	phases BS;
	power_12 100;
	name 239;
	parent 1104;
	nominal_voltage 120;
};

object triplex_node {
	phases BS;
	power_12 100;
	name 1445;
	parent 1104;
	nominal_voltage 120;
};

object underground_line {
	phases BN;
	from 492;
	name 1005;
	to 263;
	length 353.102;
	configuration 866;
};

object transformer {
	phases BS;
	from 263;
	name 633;
	to 390;
	configuration 115;
};

object triplex_node {
	phases BS;
	power_12 100;
	name 763;
	parent 390;
	nominal_voltage 120;
};

object underground_line {
	phases B;
	from 263;
	name 1377;
	to 1224;
	length 98.1972;
	configuration 866;
};

object underground_line {
	phases B;
	from 1224;
	name 206;
	to 149;
	length 143.061;
	configuration 866;
};

object transformer {
	phases BS;
	from 149;
	name 1582;
	to 1453;
	configuration 115;
};

object triplex_node {
	phases BS;
	power_12 100;
	name 209;
	parent 1453;
	nominal_voltage 120;
};

object underground_line {
	phases ACBN;
	from 492;
	name 127;
	to 1113;
	length 244.614;
	configuration 866;
};

object transformer {
	phases AS;
	from 1113;
	name 983;
	to 297;
	configuration 115;
};

object triplex_node {
	phases AS;
	power_12 100;
	name 368;
	parent 297;
	nominal_voltage 120;
};

object underground_line {
	phases ACBN;
	from 1113;
	name 963;
	to 913;
	length 174.374;
	configuration 866;
};

object underground_line {
	phases ACBN;
	from 913;
	name 1299;
	to 1232;
	length 186.186;
	configuration 866;
};

object transformer {
	phases BS;
	from 1232;
	name 1703;
	to 597;
	configuration 115;
};

object triplex_node {
	phases BS;
	power_12 100;
	name 1088;
	parent 597;
	nominal_voltage 120;
};

object triplex_node {
	phases BS;
	power_12 100;
	name 1717;
	parent 597;
	nominal_voltage 120;
};

object underground_line {
	phases ACBN;
	from 1232;
	name 377;
	to 486;
	length 218.151;
	configuration 866;
};

object transformer {
	phases AS;
	from 486;
	name 464;
	to 823;
	configuration 115;
};

object triplex_node {
	phases AS;
	power_12 100;
	name 1071;
	parent 823;
	nominal_voltage 120;
};

object underground_line {
	phases ACBN;
	from 486;
	name 678;
	to 478;
	length 199.729;
	configuration 866;
};

object transformer {
	phases CS;
	from 478;
	name 331;
	to 589;
	configuration 115;
};

object triplex_node {
	phases CS;
	power_12 3290.42;
	name 1436;
	parent 589;
	nominal_voltage 120;
};

object triplex_node {
	phases CS;
	power_12 2374.45;
	name 349;
	parent 589;
	nominal_voltage 120;
};

object underground_line {
	phases ACBN;
	from 478;
	name 1211;
	to 1455;
	length 140.001;
	configuration 866;
};

object transformer {
	phases BS;
	from 1455;
	name 1302;
	to 1351;
	configuration 115;
};

object triplex_node {
	phases BS;
	power_12 100;
	name 704;
	parent 1351;
	nominal_voltage 120;
};

object triplex_node {
	phases BS;
	power_12 100;
	name 1323;
	parent 1351;
	nominal_voltage 120;
};

object transformer {
	phases CS;
	from 913;
	name 389;
	to 1449;
	configuration 115;
};

object triplex_node {
	phases CS;
	power_12 1988.38;
	name 262;
	parent 1449;
	nominal_voltage 120;
};

object transformer {
	phases CS;
	from 386;
	name 150;
	to 1298;
	configuration 115;
};

object triplex_node {
	phases CS;
	power_12 4282.08;
	name 1225;
	parent 1298;
	nominal_voltage 120;
};

object transformer {
	phases AS;
	from 781;
	name 1112;
	to 196;
	configuration 115;
};

object triplex_node {
	phases AS;
	power_12 100;
	name 1452;
	parent 196;
	nominal_voltage 120;
};

object triplex_node {
	phases AS;
	power_12 100;
	name 915;
	parent 196;
	nominal_voltage 120;
};

object triplex_node {
	phases AS;
	power_12 100;
	name 298;
	parent 196;
	nominal_voltage 120;
};

object underground_line {
	phases ACB;
	from 1411;
	name 1349;
	to 1566;
	length 29.715;
	configuration 866;
};

object switch {
	status CLOSED;
	phases ACBN;
	from 1566;
	name 1454;
	to 1680;
};

object switch {
	status CLOSED;
	phases ACB;
	from 1680;
	name 1572;
	to 610;
};

object underground_line {
	phases ACB;
	from 610;
	name 480;
	to 718;
	length 520.593;
	configuration 866;
};

object underground_line {
	phases ACB;
	from 718;
	name 822;
	to 825;
	length 524.298;
	configuration 866;
};

object underground_line {
	phases ACB;
	from 825;
	name 485;
	to 954;
	length 499.641;
	configuration 866;
};

object underground_line {
	phases ACB;
	from 954;
	name 598;
	to 1554;
	length 311.538;
	configuration 866;
};

object switch {
	status CLOSED;
	phases ACBN;
	from 1554;
	name 1234;
	to 1696;
};

object switch {
	status CLOSED;
	phases ACB;
	from 1696;
	name 1587;
	to 1354;
};

object underground_line {
	phases ACB;
	from 1354;
	name 1248;
	to 168;
	length 21.6692;
	configuration 866;
};

object overhead_line {
	phases ACBN;
	from 168;
	name 1565;
	to 879;
	length 26.3767;
	configuration 1679;
};

object underground_line {
	phases AN;
	from 879;
	name 195;
	to 926;
	length 30.0841;
	configuration 866;
};

object fuse {
	phases A;
	from 926;
	name 611;
	current_limit 9999.0 A;
	to 309;
};

object underground_line {
	phases A;
	from 309;
	name 1681;
	to 907;
	length 248.664;
	configuration 866;
};

object transformer {
	phases AS;
	from 907;
	name 824;
	to 1278;
	configuration 115;
};

object triplex_node {
	phases AS;
	power_12 100;
	name 716;
	parent 1278;
	nominal_voltage 120;
};

object triplex_node {
	phases AS;
	power_12 100;
	name 1557;
	parent 1278;
	nominal_voltage 120;
};

object triplex_node {
	phases AS;
	power_12 100;
	name 955;
	parent 1278;
	nominal_voltage 120;
};

object underground_line {
	phases AN;
	from 907;
	name 1353;
	to 419;
	length 120.109;
	configuration 866;
};

object transformer {
	phases AS;
	from 419;
	name 1693;
	to 1500;
	configuration 115;
};

object triplex_node {
	phases AS;
	power_12 100;
	name 310;
	parent 1500;
	nominal_voltage 120;
};

object underground_line {
	phases AN;
	from 419;
	name 81;
	to 402;
	length 139.46;
	configuration 866;
};

object transformer {
	phases AS;
	from 402;
	name 538;
	to 304;
	configuration 115;
};

object triplex_node {
	phases AS;
	power_12 100;
	name 167;
	parent 304;
	nominal_voltage 120;
};

object triplex_node {
	phases AS;
	power_12 100;
	name 1501;
	parent 304;
	nominal_voltage 120;
};

object triplex_node {
	phases AS;
	power_12 100;
	name 421;
	parent 304;
	nominal_voltage 120;
};

object triplex_node {
	phases AS;
	power_12 100;
	name 1277;
	parent 304;
	nominal_voltage 120;
};

object underground_line {
	phases AN;
	from 402;
	name 906;
	to 872;
	length 140.033;
	configuration 866;
};

object transformer {
	phases AS;
	from 872;
	name 528;
	to 1487;
	configuration 115;
};

object triplex_node {
	phases AS;
	power_12 100;
	name 1142;
	parent 1487;
	nominal_voltage 120;
};

object triplex_node {
	phases AS;
	power_12 100;
	name 997;
	parent 1487;
	nominal_voltage 120;
};

object triplex_node {
	phases AS;
	power_12 100;
	name 384;
	parent 1487;
	nominal_voltage 120;
};

object underground_line {
	phases AN;
	from 872;
	name 233;
	to 654;
	length 108.756;
	configuration 866;
};

object transformer {
	phases AS;
	from 654;
	name 612;
	to 274;
	configuration 115;
};

object triplex_node {
	phases AS;
	power_12 100;
	name 250;
	parent 274;
	nominal_voltage 120;
};

object overhead_line {
	phases ACBN;
	from 879;
	name 1358;
	to 1389;
	length 191.748;
	configuration 1679;
};

object overhead_line {
	phases ACBN;
	from 1389;
	name 1214;
	to 290;
	length 80.5873;
	configuration 1679;
};

object transformer {
	phases BS;
	from 290;
	name 1123;
	to 1626;
	configuration 115;
};

object triplex_node {
	phases BS;
	power_12 100;
	name 1146;
	parent 1626;
	nominal_voltage 120;
};

object overhead_line {
	phases ACBN;
	from 290;
	name 533;
	to 1258;
	length 240.081;
	configuration 1679;
};

object overhead_line {
	phases ACBN;
	from 1258;
	name 1691;
	to 642;
	length 317.835;
	configuration 1679;
};

object overhead_line {
	phases ACBN;
	from 642;
	name 1326;
	to 1246;
	length 201.027;
	configuration 1679;
};

object overhead_line {
	phases ACBN;
	from 1246;
	name 1451;
	to 1601;
	length 201.443;
	configuration 1679;
};

object overhead_line {
	phases ACBN;
	from 1601;
	name 371;
	to 995;
	length 224.687;
	configuration 1679;
};

object overhead_line {
	phases ACBN;
	from 995;
	name 496;
	to 835;
	length 216.095;
	configuration 1679;
};

object overhead_line {
	phases AN;
	from 835;
	name 585;
	to 759;
	length 474.794;
	configuration 1679;
};

object overhead_line {
	phases AN;
	from 759;
	name 725;
	to 621;
	length 25.0001;
	configuration 275;
};

object fuse {
	phases AN;
	from 621;
	name 1341;
	current_limit 9999.0 A;
	to 1722;
};

object overhead_line {
	phases AN;
	from 1722;
	name 1462;
	to 1583;
	length 325.822;
	configuration 275;
};

object transformer {
	phases AS;
	from 1583;
	name 1126;
	to 990;
	configuration 115;
};

object triplex_node {
	phases AS;
	power_12 100;
	name 794;
	parent 990;
	nominal_voltage 120;
};

object overhead_line {
	phases ACBN;
	from 995;
	name 1407;
	to 1376;
	length 90.9393;
	configuration 1679;
};

object overhead_line {
	phases ACBN;
	from 1376;
	name 1013;
	to 762;
	length 24.9999;
	configuration 1679;
};

object overhead_line {
	phases ACBN;
	from 441;
	name 1772;
	to 128;
	length 191.256;
	configuration 1102;
};

object transformer {
	phases AS;
	from 128;
	name 685;
	to 210;
	configuration 115;
};

object triplex_node {
	phases AS;
	power_12 100;
	name 415;
	parent 210;
	nominal_voltage 120;
};

object overhead_line {
	phases BN;
	from 128;
	name 1636;
	to 367;
	length 40.0012;
	configuration 1102;
};

object transformer {
	phases BS;
	from 367;
	name 1037;
	to 981;
	configuration 115;
};

object triplex_node {
	phases BS;
	power_12 100;
	name 1653;
	parent 981;
	nominal_voltage 120;
};

object overhead_line {
	phases ACBN;
	from 546;
	name 550;
	to 637;
	length 29.1022;
	configuration 807;
};

object overhead_line {
	phases ACBN;
	from 1171;
	name 1307;
	to 964;
	length 32.2093;
	configuration 807;
};

object overhead_line {
	phases ACBN;
	from 964;
	name 697;
	to 1087;
	length 19.976;
	configuration 807;
};

object overhead_line {
	phases ACBN;
	from 1171;
	name 1634;
	to 1702;
	length 158.967;
	configuration 1679;
};

object overhead_line {
	phases ACBN;
	from 1702;
	name 330;
	to 379;
	length 15.1854;
	configuration 1679;
};

object fuse {
	phases ACBN;
	from 379;
	name 1424;
	current_limit 9999.0 A;
	to 1718;
};

object overhead_line {
	phases ACBN;
	from 1718;
	name 340;
	to 1403;
	length 14.881;
	configuration 1679;
};

object overhead_line {
	phases ACBN;
	from 1403;
	name 706;
	to 1058;
	length 401.908;
	configuration 1679;
};

object overhead_line {
	phases ACBN;
	from 1058;
	name 362;
	to 1195;
	length 30;
	configuration 1679;
};

object overhead_line {
	phases AN;
	from 1195;
	name 580;
	to 91;
	length 25.2353;
	configuration 1641;
};

object fuse {
	phases AN;
	from 91;
	name 1744;
	current_limit 9999.0 A;
	to 230;
};

object overhead_line {
	phases AN;
	from 230;
	name 1333;
	to 328;
	length 185.337;
	configuration 1641;
};

object overhead_line {
	phases AN;
	from 328;
	name 972;
	to 467;
	length 210.084;
	configuration 1641;
};

object transformer {
	phases AS;
	from 467;
	name 1096;
	to 1074;
	configuration 115;
};

object triplex_node {
	phases AS;
	power_12 100;
	name 1715;
	parent 1074;
	nominal_voltage 120;
};

object overhead_line {
	phases ACBN;
	from 1195;
	name 548;
	to 1207;
	length 212.564;
	configuration 1679;
};

object transformer {
	phases CS;
	from 1207;
	name 197;
	to 832;
	configuration 115;
};

object triplex_node {
	phases CS;
	power_12 4748.9;
	name 391;
	parent 832;
	nominal_voltage 120;
};

object overhead_line {
	phases ACBN;
	from 1207;
	name 1206;
	to 726;
	length 747.809;
	configuration 1679;
};

object overhead_line {
	phases ACBN;
	from 726;
	name 616;
	to 112;
	length 265.618;
	configuration 1679;
};

object overhead_line {
	phases ACBN;
	from 112;
	name 994;
	to 1688;
	length 507.61;
	configuration 1679;
};

object overhead_line {
	phases ACBN;
	from 1688;
	name 630;
	to 326;
	length 269.729;
	configuration 1679;
};

object transformer {
	phases BS;
	from 326;
	name 1727;
	to 1708;
	configuration 115;
};

object triplex_node {
	phases BS;
	power_12 100;
	name 1592;
	parent 1708;
	nominal_voltage 120;
};

object triplex_node {
	phases BS;
	power_12 100;
	name 241;
	parent 1708;
	nominal_voltage 120;
};

object overhead_line {
	phases ACBN;
	from 326;
	name 1579;
	to 1090;
	length 362.275;
	configuration 1679;
};

object overhead_line {
	phases ACBN;
	from 1090;
	name 982;
	to 960;
	length 403.339;
	configuration 1679;
};

object overhead_line {
	phases ACBN;
	from 960;
	name 649;
	to 860;
	length 292.192;
	configuration 1679;
};

object overhead_line {
	phases ACBN;
	from 860;
	name 1256;
	to 984;
	length 375.845;
	configuration 1679;
};

object overhead_line {
	phases ACBN;
	from 984;
	name 874;
	to 363;
	length 306.614;
	configuration 1679;
};

object overhead_line {
	phases ACBN;
	from 363;
	name 503;
	to 118;
	length 317.537;
	configuration 1679;
};

object overhead_line {
	phases ACBN;
	from 118;
	name 123;
	to 742;
	length 286.057;
	configuration 1679;
};

object overhead_line {
	phases ACBN;
	from 742;
	name 732;
	to 1609;
	length 13.0603;
	configuration 1102;
};

object fuse {
	phases ACBN;
	from 1609;
	name 1613;
	current_limit 9999.0 A;
	to 1267;
};

object overhead_line {
	phases ACBN;
	from 1267;
	name 1238;
	to 645;
	length 106.95;
	configuration 1102;
};

object transformer {
	phases AS;
	from 645;
	name 859;
	to 1252;
	configuration 115;
};

object triplex_node {
	phases AS;
	power_12 32759.0;
	name 1469;
	parent 1252;
	nominal_voltage 120;
};

object overhead_line {
	phases ACBN;
	from 645;
	name 186;
	to 870;
	length 29.3356;
	configuration 1102;
};

object switch {
	status CLOSED;
	phases ACBN;
	from 870;
	name 535;
	to 501;
};

object switch {
	status CLOSED;
	phases ACBN;
	from 501;
	name 948;
	to 1673;
};

object overhead_line {
	phases ACB;
	from 1673;
	name 307;
	to 574;
	length 15.0633;
	configuration 1102;
};

object underground_line {
	phases ACB;
	from 574;
	name 1166;
	to 1133;
	length 28.9999;
	configuration 866;
};

object fuse {
	phases ACB;
	from 1133;
	name 1050;
	current_limit 9999.0 A;
	to 1496;
};

object overhead_line {
	phases ACBN;
	from 742;
	name 1286;
	to 165;
	length 470.042;
	configuration 1679;
};

object overhead_line {
	phases ACBN;
	from 165;
	name 1684;
	to 1271;
	length 436.471;
	configuration 1679;
};

object overhead_line {
	phases ACBN;
	from 1271;
	name 319;
	to 175;
	length 368.458;
	configuration 1679;
};

object overhead_line {
	phases ACBN;
	from 175;
	name 1682;
	to 517;
	length 341.358;
	configuration 1679;
};

object overhead_line {
	phases ACBN;
	from 517;
	name 80;
	to 1372;
	length 359.974;
	configuration 1679;
};

object overhead_line {
	phases BN;
	from 326;
	name 809;
	to 751;
	length 25;
	configuration 1086;
};

object fuse {
	phases BN;
	from 751;
	name 1163;
	current_limit 9999.0 A;
	to 1352;
};

object overhead_line {
	phases BN;
	from 1352;
	name 815;
	to 1344;
	length 121.877;
	configuration 1086;
};

object overhead_line {
	phases BN;
	from 1344;
	name 941;
	to 1280;
	length 197.367;
	configuration 1086;
};

object overhead_line {
	phases BN;
	from 1280;
	name 1564;
	to 1729;
	length 255;
	configuration 1086;
};

object overhead_line {
	phases BN;
	from 1729;
	name 203;
	to 1043;
	length 255;
	configuration 1086;
};

object overhead_line {
	phases BN;
	from 1043;
	name 1581;
	to 1656;
	length 360;
	configuration 1086;
};

object line_configuration {
	name 1086;
	spacing 1678;
	conductor_N 430;
	conductor_A 1094;
	conductor_C 1094;
	conductor_B 430;
};

object overhead_line {
	phases BN;
	from 1280;
	name 819;
	to 1218;
	length 268.71;
	configuration 1086;
};

object transformer {
	phases BS;
	from 1218;
	name 712;
	to 1381;
	configuration 115;
};

object triplex_node {
	phases BS;
	power_12 100;
	name 1569;
	parent 1381;
	nominal_voltage 120;
};

object overhead_line {
	phases BN;
	from 1218;
	name 484;
	to 1137;
	length 304.822;
	configuration 1086;
};

object transformer {
	phases BS;
	from 1137;
	name 1556;
	to 1419;
	configuration 115;
};

object triplex_node {
	phases BS;
	power_12 100;
	name 1446;
	parent 1419;
	nominal_voltage 120;
};

object overhead_line {
	phases BN;
	from 1218;
	name 78;
	to 1040;
	length 220.523;
	configuration 1086;
};

object transformer {
	phases BS;
	from 1040;
	name 1245;
	to 1124;
	configuration 115;
};

object triplex_node {
	phases BS;
	power_12 100;
	name 639;
	parent 1124;
	nominal_voltage 120;
};

object overhead_line {
	phases B;
	from 726;
	name 715;
	to 573;
	length 264.012;
	configuration 1086;
};

object underground_line {
	phases B;
	from 573;
	name 1340;
	to 1668;
	length 25.0002;
	configuration 866;
};

object fuse {
	phases B;
	from 1668;
	name 488;
	current_limit 9999.0 A;
	to 1533;
};

object underground_line {
	phases B;
	from 1533;
	name 147;
	to 662;
	length 110.041;
	configuration 866;
};

object transformer {
	phases BS;
	from 662;
	name 1263;
	to 1766;
	configuration 115;
};

object triplex_node {
	phases BS;
	power_12 100;
	name 161;
	parent 1766;
	nominal_voltage 120;
};

object overhead_line {
	phases CN;
	from 1207;
	name 1459;
	to 1151;
	length 25.0001;
	configuration 427;
};

object fuse {
	phases CN;
	from 1151;
	name 1129;
	current_limit 9999.0 A;
	to 557;
};

object overhead_line {
	phases CN;
	from 557;
	name 479;
	to 937;
	length 131.009;
	configuration 427;
};

object transformer {
	phases CS;
	from 937;
	name 1712;
	to 792;
	configuration 115;
};

object triplex_node {
	phases CS;
	power_12 4264.42;
	name 1755;
	parent 792;
	nominal_voltage 120;
};

object triplex_node {
	phases CS;
	power_12 158.97;
	name 394;
	parent 792;
	nominal_voltage 120;
};

object overhead_line {
	phases CN;
	from 937;
	name 790;
	to 176;
	length 240.841;
	configuration 427;
};

object overhead_line {
	phases CN;
	from 176;
	name 171;
	to 1724;
	length 269.281;
	configuration 427;
};

object transformer {
	phases CS;
	from 1724;
	name 773;
	to 625;
	configuration 115;
};

object triplex_node {
...